<?xml version="1.0" encoding="UTF-8"?>
<routes xmlns:xsi="http://www.w3.org/2001/XMLSchema-instance" xsi:noNamespaceSchemaLocation="http://sumo-sim.org/xsd/routes_file.xsd">
  <vType accel="1.0" decel="5.0" id="Car" length="5.0" minGap="2.0" maxSpeed="70.0" sigma="0" />
  
<flow id="type1" color="1,1,0"  begin="0" end= "7200" period="1" type="Car">
    <route edges="N42 A28Tot700 A28TotExit"/>
</flow>

<flow id="type2" color="1,0,0"  begin="0" end= "7200" period="1" type="Car" arrivalSpeed="70" departSpeed="10" departLane="0">
    <route edges="A28Tot350 A28Tot700 A28TotExit"/>
</flow>


 

</routes>
