<?xml version="1.0" encoding="UTF-8"?>

<!-- generated on Fri Oct 10 10:54:58 2014 by SUMO netconvert Version 0.21.0
<?xml version="1.0" encoding="UTF-8"?>

<configuration xmlns:xsi="http://www.w3.org/2001/XMLSchema-instance" xsi:noNamespaceSchemaLocation="http://sumo-sim.org/xsd/netconvertConfiguration.xsd">

    <input>
        <node-files value="hello.nod.xml"/>
        <edge-files value="hello.edg.xml"/>
    </input>

    <output>
        <output-file value="hello.net.xml"/>
    </output>

    <report>
        <verbose value="true"/>
    </report>

</configuration>
-->

<net version="0.13" xmlns:xsi="http://www.w3.org/2001/XMLSchema-instance" xsi:noNamespaceSchemaLocation="http://sumo-sim.org/xsd/net_file.xsd">

    <location netOffset="350.00,100.00" convBoundary="0.00,0.00,701.00,100.00" origBoundary="-350.00,-100.00,351.00,0.00" projParameter="!"/>

    <edge id=":A28H350_0" function="internal">
        <lane id=":A28H350_0_0" index="0" speed="20.00" length="3.65" shape="342.11,94.21 345.67,95.05"/>
    </edge>
    <edge id=":A28H350_1" function="internal">
        <lane id=":A28H350_1_0" index="0" speed="20.00" length="3.56" shape="342.11,98.35 345.67,98.35"/>
    </edge>
    <edge id=":A28H700_0" function="internal">
        <lane id=":A28H700_0_0" index="0" speed="20.00" length="0.10" shape="700.00,95.05 700.00,95.05"/>
        <lane id=":A28H700_0_1" index="1" speed="20.00" length="0.10" shape="700.00,98.35 700.00,98.35"/>
    </edge>

    <edge id="A28Tot350" from="A28H0" to="A28H350" priority="2">
        <lane id="A28Tot350_0" index="0" speed="20.00" length="342.11" shape="0.00,98.35 342.11,98.35"/>
    </edge>
    <edge id="A28Tot700" from="A28H350" to="A28H700" priority="2">
        <lane id="A28Tot700_0" index="0" speed="20.00" length="354.33" shape="345.67,95.05 700.00,95.05"/>
        <lane id="A28Tot700_1" index="1" speed="20.00" length="354.33" shape="345.67,98.35 700.00,98.35"/>
    </edge>
    <edge id="A28TotExit" from="A28H700" to="A28Exit" priority="2">
        <lane id="A28TotExit_0" index="0" speed="20.00" length="1.00" shape="700.00,95.05 701.00,95.05"/>
        <lane id="A28TotExit_1" index="1" speed="20.00" length="1.00" shape="700.00,98.35 701.00,98.35"/>
    </edge>
    <edge id="N42" from="N42Invoeg" to="A28H350" priority="1">
        <lane id="N42_0" index="0" speed="20.00" length="213.96" shape="150.74,-1.48 342.11,94.21"/>
    </edge>

    <junction id="A28Exit" type="unregulated" x="701.00" y="100.00" incLanes="A28TotExit_0 A28TotExit_1" intLanes="" shape="701.00,93.45 701.00,99.95"/>
    <junction id="A28H0" type="unregulated" x="0.00" y="100.00" incLanes="" intLanes="" shape="-0.00,99.95 -0.00,96.75"/>
    <junction id="A28H350" type="priority" x="350.00" y="100.00" incLanes="N42_0 A28Tot350_0" intLanes=":A28H350_0_0 :A28H350_1_0" shape="345.67,99.95 345.67,93.45 342.83,92.78 341.39,95.64 342.11,96.75 342.11,99.95">
        <request index="0" response="00" foes="00" cont="0"/>
        <request index="1" response="00" foes="00" cont="0"/>
    </junction>
    <junction id="A28H700" type="priority" x="700.00" y="100.00" incLanes="A28Tot700_0 A28Tot700_1" intLanes=":A28H700_0_0 :A28H700_0_1" shape="700.00,99.95 700.00,93.45 700.00,99.95">
        <request index="0" response="00" foes="00" cont="0"/>
        <request index="1" response="00" foes="00" cont="0"/>
    </junction>
    <junction id="N42Invoeg" type="unregulated" x="150.00" y="0.00" incLanes="" intLanes="" shape="150.02,-0.04 151.45,-2.91"/>

    <connection from="A28Tot350" to="A28Tot700" fromLane="0" toLane="1" pass="1" via=":A28H350_1_0" dir="s" state="M"/>
    <connection from="A28Tot700" to="A28TotExit" fromLane="0" toLane="0" via=":A28H700_0_0" dir="s" state="M"/>
    <connection from="A28Tot700" to="A28TotExit" fromLane="1" toLane="1" via=":A28H700_0_1" dir="s" state="M"/>
    <connection from="N42" to="A28Tot700" fromLane="0" toLane="0" pass="1" via=":A28H350_0_0" dir="s" state="M"/>

    <connection from=":A28H350_0" to="A28Tot700" fromLane="0" toLane="0" dir="s" state="M"/>
    <connection from=":A28H350_1" to="A28Tot700" fromLane="0" toLane="1" dir="s" state="M"/>
    <connection from=":A28H700_0" to="A28TotExit" fromLane="0" toLane="0" dir="s" state="M"/>
    <connection from=":A28H700_0" to="A28TotExit" fromLane="1" toLane="1" dir="s" state="M"/>

</net>
